<?xml version="1.0" encoding="UTF-8"?>

<!-- generated on 2026-01-14 23:18:50 by Eclipse SUMO netedit Version 1.24.0
<neteditConfiguration xmlns:xsi="http://www.w3.org/2001/XMLSchema-instance" xsi:noNamespaceSchemaLocation="http://sumo.dlr.de/xsd/neteditConfiguration.xsd">

    <input>
        <sumo-net-file value="C:\Users\sahil\Desktop\tsc\sioux.net.xml"/>
    </input>

    <output>
        <output-file value="C:\Users\sahil\Desktop\tsc\sioux.net.xml"/>
    </output>

    <processing>
        <geometry.min-radius.fix.railways value="false"/>
        <geometry.avoid-overlap value="false"/>
        <geometry.max-grade.fix value="false"/>
        <offset.disable-normalization value="true"/>
        <lefthand value="0"/>
    </processing>

    <junctions>
        <no-turnarounds value="true"/>
        <junctions.corner-detail value="5"/>
        <junctions.limit-turn-speed value="5.50"/>
        <rectangular-lane-cut value="0"/>
    </junctions>

    <pedestrian>
        <walkingareas value="0"/>
    </pedestrian>

</neteditConfiguration>
-->

<net version="1.20" junctionCornerDetail="5" limitTurnSpeed="5.50" avoidOverlap="0" xmlns:xsi="http://www.w3.org/2001/XMLSchema-instance" xsi:noNamespaceSchemaLocation="http://sumo.dlr.de/xsd/net_file.xsd">

    <location netOffset="0.00,0.00" convBoundary="11.97,-170.16,380.91,149.75" origBoundary="-10000000000.00,-10000000000.00,10000000000.00,10000000000.00" projParameter="!"/>

    <edge id=":J0_0" function="internal">
        <lane id=":J0_0_0" index="0" speed="11.12" length="28.83" shape="21.83,157.69 13.98,156.61 8.41,153.28 5.12,147.68 4.12,139.82"/>
        <lane id=":J0_0_1" index="1" speed="10.09" length="23.59" shape="21.81,154.49 15.39,153.61 10.83,150.88 8.14,146.30 7.32,139.87"/>
        <lane id=":J0_0_2" index="2" speed="8.96" length="18.34" shape="21.79,151.29 16.79,150.61 13.25,148.48 11.16,144.92 10.52,139.92"/>
    </edge>
    <edge id=":J0_3" function="internal">
        <lane id=":J0_3_0" index="0" speed="3.90" length="2.62" shape="20.12,140.07 20.21,140.78 20.51,141.29 21.01,141.59 21.73,141.69"/>
        <lane id=":J0_3_1" index="1" speed="6.07" length="7.86" shape="16.92,140.02 17.19,142.16 18.09,143.69 19.61,144.60 21.75,144.89"/>
        <lane id=":J0_3_2" index="2" speed="7.65" length="13.10" shape="13.72,139.97 14.18,143.54 15.67,146.08 18.20,147.60 21.77,148.09"/>
    </edge>
    <edge id=":J1_0" function="internal">
        <lane id=":J1_0_0" index="0" speed="11.39" length="29.83" shape="271.76,134.55 270.86,144.00 268.05,150.77 263.33,154.84 256.69,156.23"/>
        <lane id=":J1_0_1" index="1" speed="10.41" length="24.71" shape="268.56,134.57 267.85,142.62 265.64,148.38 261.91,151.85 256.67,153.03"/>
        <lane id=":J1_0_2" index="2" speed="9.84" length="21.98" shape="268.56,134.57 267.84,141.22 265.62,145.98 261.89,148.85 256.65,149.83"/>
    </edge>
    <edge id=":J1_3" function="internal">
        <lane id=":J1_3_0" index="0" speed="6.51" length="9.03" shape="256.59,140.23 259.04,139.87 260.78,138.81 261.82,137.05 262.16,134.60"/>
        <lane id=":J1_3_1" index="1" speed="8.00" length="14.18" shape="256.61,143.43 260.46,142.86 263.19,141.20 264.83,138.44 265.36,134.59"/>
    </edge>
    <edge id=":J10_0" function="internal">
        <lane id=":J10_0_0" index="0" speed="6.70" length="9.40" shape="191.07,64.08 190.63,61.48 189.51,59.63 187.72,58.52 185.25,58.16"/>
    </edge>
    <edge id=":J10_1" function="internal">
        <lane id=":J10_1_0" index="0" speed="13.89" length="28.38" shape="191.07,64.08 191.04,35.61"/>
        <lane id=":J10_1_1" index="1" speed="13.89" length="28.38" shape="194.27,63.96 194.24,35.67"/>
    </edge>
    <edge id=":J10_3" function="internal">
        <lane id=":J10_3_0" index="0" speed="13.89" length="4.38" shape="194.27,63.96 194.98,59.63"/>
    </edge>
    <edge id=":J10_4" function="internal">
        <lane id=":J10_4_0" index="0" speed="11.27" length="3.02" shape="194.27,63.96 194.99,61.02"/>
    </edge>
    <edge id=":J10_25" function="internal">
        <lane id=":J10_25_0" index="0" speed="13.89" length="28.10" shape="194.98,59.63 195.23,58.07 198.53,51.78 204.17,45.10 212.15,38.02"/>
    </edge>
    <edge id=":J10_26" function="internal">
        <lane id=":J10_26_0" index="0" speed="11.27" length="26.79" shape="194.99,61.02 195.59,58.60 199.99,54.74 207.47,52.39 218.04,51.54"/>
    </edge>
    <edge id=":J10_5" function="internal">
        <lane id=":J10_5_0" index="0" speed="9.23" length="19.67" shape="218.09,57.94 210.39,58.36 204.92,59.46 201.68,61.25 200.67,63.72"/>
    </edge>
    <edge id=":J10_6" function="internal">
        <lane id=":J10_6_0" index="0" speed="13.89" length="32.83" shape="218.09,57.94 185.25,58.16"/>
        <lane id=":J10_6_1" index="1" speed="13.89" length="32.83" shape="218.06,54.74 185.24,54.96"/>
    </edge>
    <edge id=":J10_8" function="internal">
        <lane id=":J10_8_0" index="0" speed="12.16" length="6.30" shape="218.06,54.74 211.79,54.08"/>
    </edge>
    <edge id=":J10_9" function="internal">
        <lane id=":J10_9_0" index="0" speed="7.96" length="2.67" shape="218.06,54.74 215.49,54.02"/>
    </edge>
    <edge id=":J10_27" function="internal">
        <lane id=":J10_27_0" index="0" speed="12.16" length="28.57" shape="211.79,54.08 207.49,53.62 200.00,50.07 195.58,44.09 194.24,35.67"/>
    </edge>
    <edge id=":J10_28" function="internal">
        <lane id=":J10_28_0" index="0" speed="7.96" length="21.08" shape="215.49,54.02 211.90,53.02 208.52,48.71 208.44,43.23 212.15,38.02"/>
    </edge>
    <edge id=":J10_10" function="internal">
        <lane id=":J10_10_0" index="0" speed="5.46" length="10.22" shape="216.13,43.03 213.71,45.38 213.22,47.05 214.65,48.04 218.01,48.34"/>
    </edge>
    <edge id=":J10_11" function="internal">
        <lane id=":J10_11_0" index="0" speed="13.89" length="26.54" shape="216.13,43.03 209.25,49.03 204.38,54.47 201.52,59.37 200.67,63.72"/>
    </edge>
    <edge id=":J10_12" function="internal">
        <lane id=":J10_12_0" index="0" speed="13.89" length="33.84" shape="216.13,43.03 209.41,48.02 201.51,52.92 193.19,56.65 185.25,58.16"/>
        <lane id=":J10_12_1" index="1" speed="13.89" length="33.84" shape="214.14,40.53 207.73,45.40 200.51,50.06 192.87,53.56 185.24,54.96"/>
    </edge>
    <edge id=":J10_14" function="internal">
        <lane id=":J10_14_0" index="0" speed="8.82" length="26.72" shape="214.14,40.53 207.24,44.36 200.76,45.02 196.00,42.23 194.24,35.67"/>
    </edge>
    <edge id=":J10_15" function="internal">
        <lane id=":J10_15_0" index="0" speed="6.35" length="13.06" shape="200.64,35.80 201.18,38.56 202.94,39.43 205.94,38.42 210.16,35.52"/>
    </edge>
    <edge id=":J10_16" function="internal">
        <lane id=":J10_16_0" index="0" speed="10.23" length="24.38" shape="200.64,35.80 201.63,41.34 204.85,45.28 210.31,47.61 218.01,48.34"/>
    </edge>
    <edge id=":J10_17" function="internal">
        <lane id=":J10_17_0" index="0" speed="13.89" length="28.01" shape="200.64,35.80 200.67,63.72"/>
        <lane id=":J10_17_1" index="1" speed="13.89" length="28.01" shape="197.44,35.74 197.47,63.84"/>
    </edge>
    <edge id=":J10_19" function="internal">
        <lane id=":J10_19_0" index="0" speed="10.64" length="6.48" shape="197.44,35.74 196.74,42.18"/>
    </edge>
    <edge id=":J10_29" function="internal">
        <lane id=":J10_29_0" index="0" speed="10.64" length="18.95" shape="196.74,42.18 196.53,44.13 194.19,50.13 190.43,53.74 185.24,54.96"/>
    </edge>
    <edge id=":J10_20" function="internal">
        <lane id=":J10_20_0" index="0" speed="8.40" length="15.47" shape="185.21,48.56 187.66,47.74 189.45,45.31 190.58,41.27 191.04,35.61"/>
    </edge>
    <edge id=":J10_21" function="internal">
        <lane id=":J10_21_0" index="0" speed="13.89" length="28.71" shape="185.21,48.56 192.23,47.38 198.50,44.36 204.37,40.18 210.16,35.52"/>
    </edge>
    <edge id=":J10_22" function="internal">
        <lane id=":J10_22_0" index="0" speed="13.89" length="32.80" shape="185.21,48.56 218.01,48.34"/>
        <lane id=":J10_22_1" index="1" speed="13.89" length="32.80" shape="185.23,51.76 218.04,51.54"/>
    </edge>
    <edge id=":J10_24" function="internal">
        <lane id=":J10_24_0" index="0" speed="9.40" length="4.81" shape="185.23,51.76 189.99,52.44"/>
    </edge>
    <edge id=":J10_30" function="internal">
        <lane id=":J10_30_0" index="0" speed="9.40" length="14.66" shape="189.99,52.44 190.42,52.50 194.18,54.76 196.54,58.54 197.47,63.84"/>
    </edge>
    <edge id=":J11_0" function="internal">
        <lane id=":J11_0_0" index="0" speed="6.74" length="9.55" shape="120.18,58.40 117.66,58.79 115.84,59.92 114.72,61.80 114.30,64.43"/>
    </edge>
    <edge id=":J11_1" function="internal">
        <lane id=":J11_1_0" index="0" speed="13.89" length="21.04" shape="120.18,58.40 99.16,58.65"/>
        <lane id=":J11_1_1" index="1" speed="13.89" length="21.04" shape="120.17,55.20 99.10,55.45"/>
    </edge>
    <edge id=":J11_3" function="internal">
        <lane id=":J11_3_0" index="0" speed="9.26" length="4.75" shape="120.17,55.20 115.46,54.55"/>
    </edge>
    <edge id=":J11_16" function="internal">
        <lane id=":J11_16_0" index="0" speed="9.26" length="14.61" shape="115.46,54.55 114.91,54.47 111.15,52.23 108.89,48.49 108.13,43.23"/>
    </edge>
    <edge id=":J11_4" function="internal">
        <lane id=":J11_4_0" index="0" speed="6.50" length="9.03" shape="114.53,43.22 114.88,45.67 115.94,47.42 117.69,48.46 120.14,48.80"/>
    </edge>
    <edge id=":J11_5" function="internal">
        <lane id=":J11_5_0" index="0" speed="13.89" length="21.17" shape="114.53,43.22 114.30,64.43"/>
        <lane id=":J11_5_1" index="1" speed="13.89" length="21.17" shape="111.33,43.23 111.10,64.36"/>
    </edge>
    <edge id=":J11_7" function="internal">
        <lane id=":J11_7_0" index="0" speed="9.38" length="5.20" shape="111.33,43.23 110.59,48.37"/>
    </edge>
    <edge id=":J11_17" function="internal">
        <lane id=":J11_17_0" index="0" speed="9.38" length="14.44" shape="110.59,48.37 110.57,48.48 108.28,52.27 104.46,54.60 99.10,55.45"/>
    </edge>
    <edge id=":J11_8" function="internal">
        <lane id=":J11_8_0" index="0" speed="6.68" length="9.45" shape="98.97,49.05 101.58,48.64 103.45,47.54 104.56,45.74 104.93,43.24"/>
    </edge>
    <edge id=":J11_9" function="internal">
        <lane id=":J11_9_0" index="0" speed="13.89" length="21.14" shape="98.97,49.05 120.14,48.80"/>
        <lane id=":J11_9_1" index="1" speed="13.89" length="21.14" shape="99.04,52.25 120.15,52.00"/>
    </edge>
    <edge id=":J11_11" function="internal">
        <lane id=":J11_11_0" index="0" speed="9.19" length="5.25" shape="99.04,52.25 104.25,52.89"/>
    </edge>
    <edge id=":J11_18" function="internal">
        <lane id=":J11_18_0" index="0" speed="9.19" length="14.44" shape="104.25,52.89 104.42,52.92 108.23,55.16 110.45,58.97 111.10,64.36"/>
    </edge>
    <edge id=":J11_12" function="internal">
        <lane id=":J11_12_0" index="0" speed="6.41" length="9.04" shape="104.70,64.21 104.40,61.73 103.38,59.98 101.64,58.95 99.16,58.65"/>
    </edge>
    <edge id=":J11_13" function="internal">
        <lane id=":J11_13_0" index="0" speed="13.89" length="21.01" shape="104.70,64.21 104.93,43.24"/>
        <lane id=":J11_13_1" index="1" speed="13.89" length="21.01" shape="107.90,64.28 108.13,43.23"/>
    </edge>
    <edge id=":J11_15" function="internal">
        <lane id=":J11_15_0" index="0" speed="9.42" length="4.72" shape="107.90,64.28 108.66,59.62"/>
    </edge>
    <edge id=":J11_19" function="internal">
        <lane id=":J11_19_0" index="0" speed="9.42" length="14.94" shape="108.66,59.62 108.77,58.93 111.11,55.09 114.90,52.79 120.15,52.00"/>
    </edge>
    <edge id=":J12_0" function="internal">
        <lane id=":J12_0_0" index="0" speed="27.78" length="20.96" shape="4.23,65.87 4.22,44.88"/>
        <lane id=":J12_0_1" index="1" speed="27.78" length="20.96" shape="7.43,65.85 7.42,44.90"/>
        <lane id=":J12_0_2" index="2" speed="27.78" length="20.96" shape="10.63,65.84 10.62,44.91"/>
    </edge>
    <edge id=":J12_3" function="internal">
        <lane id=":J12_3_0" index="0" speed="9.91" length="4.06" shape="10.63,65.84 11.34,61.84"/>
    </edge>
    <edge id=":J12_12" function="internal">
        <lane id=":J12_12_0" index="0" speed="9.91" length="18.02" shape="11.34,61.84 11.56,60.64 14.41,56.88 19.19,54.56 25.90,53.69"/>
    </edge>
    <edge id=":J12_4" function="internal">
        <lane id=":J12_4_0" index="0" speed="6.60" length="9.23" shape="26.02,60.09 23.48,60.49 21.66,61.57 20.58,63.33 20.23,65.78"/>
        <lane id=":J12_4_1" index="1" speed="8.08" length="14.34" shape="25.96,56.89 22.03,57.51 19.24,59.20 17.57,61.97 17.03,65.80"/>
    </edge>
    <edge id=":J12_6" function="internal">
        <lane id=":J12_6_0" index="0" speed="10.37" length="25.00" shape="25.96,56.89 17.83,56.28 12.03,54.07 8.56,50.28 7.42,44.90"/>
        <lane id=":J12_6_1" index="1" speed="9.80" length="22.23" shape="25.96,56.89 19.23,56.25 14.43,54.05 11.56,50.27 10.62,44.91"/>
    </edge>
    <edge id=":J12_8" function="internal">
        <lane id=":J12_8_0" index="0" speed="6.45" length="9.03" shape="20.22,44.96 20.56,47.42 21.61,49.16 23.37,50.19 25.83,50.49"/>
    </edge>
    <edge id=":J12_9" function="internal">
        <lane id=":J12_9_0" index="0" speed="27.78" length="20.85" shape="20.22,44.96 20.23,65.78"/>
        <lane id=":J12_9_1" index="1" speed="27.78" length="20.85" shape="17.02,44.95 17.03,65.80"/>
        <lane id=":J12_9_2" index="2" speed="27.78" length="20.85" shape="13.82,44.93 13.83,65.82"/>
    </edge>
    <edge id=":J14_0" function="internal">
        <lane id=":J14_0_0" index="0" speed="6.51" length="9.03" shape="277.09,60.78 274.64,61.13 272.89,62.17 271.83,63.92 271.47,66.37"/>
    </edge>
    <edge id=":J14_1" function="internal">
        <lane id=":J14_1_0" index="0" speed="20.84" length="21.13" shape="277.09,60.78 270.81,60.27 266.49,59.17 262.27,58.10 256.28,57.64"/>
        <lane id=":J14_1_1" index="1" speed="20.84" length="21.13" shape="277.10,57.58 270.80,57.07 266.48,55.97 262.25,54.90 256.26,54.44"/>
    </edge>
    <edge id=":J14_3" function="internal">
        <lane id=":J14_3_0" index="0" speed="9.85" length="3.91" shape="277.10,54.38 273.26,53.68"/>
    </edge>
    <edge id=":J14_17" function="internal">
        <lane id=":J14_17_0" index="0" speed="9.85" length="18.07" shape="273.26,53.68 271.86,53.42 268.11,50.57 265.86,45.82 265.10,39.19"/>
    </edge>
    <edge id=":J14_4" function="internal">
        <lane id=":J14_4_0" index="0" speed="6.52" length="9.05" shape="271.50,39.18 271.86,41.63 272.91,43.38 274.67,44.43 277.13,44.78"/>
    </edge>
    <edge id=":J14_5" function="internal">
        <lane id=":J14_5_0" index="0" speed="13.89" length="27.18" shape="271.50,39.18 271.47,66.37"/>
        <lane id=":J14_5_1" index="1" speed="13.89" length="27.18" shape="268.30,39.18 268.27,66.36"/>
    </edge>
    <edge id=":J14_7" function="internal">
        <lane id=":J14_7_0" index="0" speed="9.87" length="6.40" shape="268.30,39.18 267.59,45.54"/>
    </edge>
    <edge id=":J14_18" function="internal">
        <lane id=":J14_18_0" index="0" speed="9.87" length="15.66" shape="267.59,45.54 267.56,45.82 265.30,50.58 261.54,53.45 256.26,54.44"/>
    </edge>
    <edge id=":J14_8" function="internal">
        <lane id=":J14_8_0" index="0" speed="7.37" length="11.83" shape="256.21,48.04 258.70,47.47 260.48,45.81 261.55,43.05 261.90,39.19"/>
    </edge>
    <edge id=":J14_9" function="internal">
        <lane id=":J14_9_0" index="0" speed="20.84" length="21.11" shape="256.21,48.04 262.21,47.50 266.45,46.37 270.80,45.27 277.13,44.78"/>
        <lane id=":J14_9_1" index="1" speed="20.84" length="21.11" shape="256.23,51.24 262.23,50.70 266.46,49.57 270.80,48.47 277.12,47.98"/>
        <lane id=":J14_9_2" index="2" speed="20.84" length="21.11" shape="256.23,51.24 277.11,51.18"/>
    </edge>
    <edge id=":J14_12" function="internal">
        <lane id=":J14_12_0" index="0" speed="9.80" length="5.53" shape="256.23,51.24 261.52,52.15 261.66,52.25"/>
    </edge>
    <edge id=":J14_19" function="internal">
        <lane id=":J14_19_0" index="0" speed="9.80" length="16.47" shape="261.66,52.25 265.29,54.97 267.54,59.71 268.27,66.36"/>
    </edge>
    <edge id=":J14_13" function="internal">
        <lane id=":J14_13_0" index="0" speed="7.27" length="11.65" shape="261.87,66.33 261.53,62.51 260.49,59.79 258.74,58.17 256.28,57.64"/>
    </edge>
    <edge id=":J14_14" function="internal">
        <lane id=":J14_14_0" index="0" speed="13.89" length="27.15" shape="261.87,66.33 261.90,39.19"/>
        <lane id=":J14_14_1" index="1" speed="13.89" length="27.15" shape="265.07,66.35 265.10,39.19"/>
    </edge>
    <edge id=":J14_16" function="internal">
        <lane id=":J14_16_0" index="0" speed="9.84" length="6.17" shape="265.07,66.35 265.78,60.22"/>
    </edge>
    <edge id=":J14_20" function="internal">
        <lane id=":J14_20_0" index="0" speed="9.84" length="15.82" shape="265.78,60.22 265.84,59.70 268.11,54.96 271.86,52.12 277.11,51.18"/>
    </edge>
    <edge id=":J15_0" function="internal">
        <lane id=":J15_0_0" index="0" speed="3.91" length="2.54" shape="22.81,-160.63 22.13,-160.52 21.64,-160.22 21.34,-159.72 21.24,-159.04"/>
        <lane id=":J15_0_1" index="1" speed="6.08" length="7.61" shape="22.76,-163.83 20.70,-163.50 19.23,-162.59 18.35,-161.11 18.04,-159.05"/>
        <lane id=":J15_0_2" index="2" speed="7.66" length="12.69" shape="22.70,-167.03 19.28,-166.48 16.83,-164.97 15.35,-162.50 14.84,-159.07"/>
    </edge>
    <edge id=":J15_3" function="internal">
        <lane id=":J15_3_0" index="0" speed="11.13" length="27.92" shape="5.24,-159.12 6.36,-166.66 9.61,-172.10 15.00,-175.42 22.53,-176.62"/>
        <lane id=":J15_3_1" index="1" speed="10.10" length="22.84" shape="8.44,-159.10 9.35,-165.27 12.01,-169.72 16.43,-172.44 22.59,-173.43"/>
        <lane id=":J15_3_2" index="2" speed="8.97" length="17.77" shape="11.64,-159.08 12.35,-163.89 14.42,-167.34 17.85,-169.46 22.65,-170.23"/>
    </edge>
    <edge id=":J16_0" function="internal">
        <lane id=":J16_0_0" index="0" speed="13.89" length="20.75" shape="104.74,-43.85 104.64,-64.59"/>
        <lane id=":J16_0_1" index="1" speed="13.89" length="20.75" shape="107.94,-43.86 107.84,-64.62"/>
    </edge>
    <edge id=":J16_2" function="internal">
        <lane id=":J16_2_0" index="0" speed="9.24" length="4.91" shape="107.94,-43.86 108.63,-48.72"/>
    </edge>
    <edge id=":J16_8" function="internal">
        <lane id=":J16_8_0" index="0" speed="9.24" length="14.53" shape="108.63,-48.72 108.69,-49.14 110.95,-52.90 114.72,-55.13 120.01,-55.84"/>
    </edge>
    <edge id=":J16_3" function="internal">
        <lane id=":J16_3_0" index="0" speed="6.48" length="9.03" shape="119.95,-49.44 117.49,-49.11 115.74,-48.08 114.69,-46.33 114.34,-43.87"/>
    </edge>
    <edge id=":J16_4" function="internal">
        <lane id=":J16_4_0" index="0" speed="9.32" length="19.37" shape="119.98,-52.64 114.70,-53.43 110.92,-55.69 108.63,-59.42 107.84,-64.62"/>
    </edge>
    <edge id=":J16_5" function="internal">
        <lane id=":J16_5_0" index="0" speed="6.60" length="9.18" shape="114.24,-64.67 114.62,-62.23 115.71,-60.47 117.52,-59.41 120.04,-59.04"/>
    </edge>
    <edge id=":J16_6" function="internal">
        <lane id=":J16_6_0" index="0" speed="13.89" length="20.78" shape="114.24,-64.67 114.34,-43.87"/>
        <lane id=":J16_6_1" index="1" speed="13.89" length="20.78" shape="111.04,-64.64 111.14,-43.87"/>
    </edge>
    <edge id=":J17_0" function="internal">
        <lane id=":J17_0_0" index="0" speed="13.89" length="20.94" shape="104.37,-98.33 104.36,-119.30"/>
        <lane id=":J17_0_1" index="1" speed="13.89" length="20.94" shape="107.57,-98.36 107.56,-119.27"/>
    </edge>
    <edge id=":J17_2" function="internal">
        <lane id=":J17_2_0" index="0" speed="9.24" length="5.19" shape="107.57,-98.36 108.27,-103.50"/>
    </edge>
    <edge id=":J17_8" function="internal">
        <lane id=":J17_8_0" index="0" speed="9.24" length="14.26" shape="108.27,-103.50 108.29,-103.65 110.53,-107.42 114.29,-109.67 119.58,-110.40"/>
    </edge>
    <edge id=":J17_3" function="internal">
        <lane id=":J17_3_0" index="0" speed="6.48" length="9.03" shape="119.55,-104.00 117.09,-103.66 115.34,-102.61 114.30,-100.86 113.97,-98.41"/>
    </edge>
    <edge id=":J17_4" function="internal">
        <lane id=":J17_4_0" index="0" speed="9.27" length="19.42" shape="119.56,-107.20 114.28,-107.98 110.52,-110.25 108.28,-114.01 107.56,-119.27"/>
    </edge>
    <edge id=":J17_5" function="internal">
        <lane id=":J17_5_0" index="0" speed="6.52" length="9.09" shape="113.96,-119.23 114.30,-116.78 115.35,-115.02 117.12,-113.96 119.60,-113.60"/>
    </edge>
    <edge id=":J17_6" function="internal">
        <lane id=":J17_6_0" index="0" speed="13.89" length="20.85" shape="113.96,-119.23 113.97,-98.41"/>
        <lane id=":J17_6_1" index="1" speed="13.89" length="20.85" shape="110.76,-119.25 110.77,-98.38"/>
    </edge>
    <edge id=":J18_0" function="internal">
        <lane id=":J18_0_0" index="0" speed="6.50" length="9.10" shape="119.88,-161.96 117.42,-161.65 115.66,-160.61 114.59,-158.85 114.22,-156.37"/>
    </edge>
    <edge id=":J18_1" function="internal">
        <lane id=":J18_1_0" index="0" speed="27.78" length="20.98" shape="119.88,-161.96 99.02,-161.97"/>
        <lane id=":J18_1_1" index="1" speed="27.78" length="20.98" shape="119.94,-165.16 98.97,-165.17"/>
        <lane id=":J18_1_2" index="2" speed="27.78" length="20.98" shape="120.01,-168.36 98.91,-168.37"/>
    </edge>
    <edge id=":J18_4" function="internal">
        <lane id=":J18_4_0" index="0" speed="27.78" length="21.33" shape="98.74,-177.97 120.19,-177.96"/>
        <lane id=":J18_4_1" index="1" speed="27.78" length="21.33" shape="98.80,-174.77 120.13,-174.76"/>
        <lane id=":J18_4_2" index="2" speed="27.78" length="21.33" shape="98.85,-171.57 120.07,-171.56"/>
    </edge>
    <edge id=":J18_7" function="internal">
        <lane id=":J18_7_0" index="0" speed="9.80" length="4.47" shape="98.85,-171.57 103.27,-170.86"/>
    </edge>
    <edge id=":J18_11" function="internal">
        <lane id=":J18_11_0" index="0" speed="9.80" length="17.75" shape="103.27,-170.86 104.22,-170.70 108.04,-167.88 110.30,-163.11 111.02,-156.39"/>
    </edge>
    <edge id=":J18_8" function="internal">
        <lane id=":J18_8_0" index="0" speed="6.45" length="9.03" shape="104.62,-156.43 104.29,-158.89 103.24,-160.64 101.49,-161.66 99.02,-161.97"/>
    </edge>
    <edge id=":J18_9" function="internal">
        <lane id=":J18_9_0" index="0" speed="10.40" length="24.94" shape="107.82,-156.41 108.64,-164.52 110.97,-170.29 114.79,-173.70 120.13,-174.76"/>
        <lane id=":J18_9_1" index="1" speed="9.83" length="22.18" shape="107.82,-156.41 108.63,-163.12 110.94,-167.89 114.75,-170.70 120.07,-171.56"/>
    </edge>
    <edge id=":J19_0" function="internal">
        <lane id=":J19_0_0" index="0" speed="6.82" length="9.68" shape="208.34,-48.95 205.72,-48.52 203.83,-47.37 202.67,-45.51 202.25,-42.92"/>
    </edge>
    <edge id=":J19_1" function="internal">
        <lane id=":J19_1_0" index="0" speed="13.89" length="21.14" shape="208.34,-48.95 187.14,-48.79"/>
        <lane id=":J19_1_1" index="1" speed="13.89" length="21.14" shape="208.26,-52.15 187.18,-51.99"/>
    </edge>
    <edge id=":J19_3" function="internal">
        <lane id=":J19_3_0" index="0" speed="9.22" length="5.37" shape="208.26,-52.15 202.92,-52.78"/>
    </edge>
    <edge id=":J19_16" function="internal">
        <lane id=":J19_16_0" index="0" speed="9.22" length="14.17" shape="202.92,-52.78 199.11,-54.98 196.82,-58.73 196.06,-64.05"/>
    </edge>
    <edge id=":J19_4" function="internal">
        <lane id=":J19_4_0" index="0" speed="6.45" length="9.03" shape="202.46,-64.05 202.81,-61.59 203.87,-59.86 205.63,-58.84 208.10,-58.55"/>
    </edge>
    <edge id=":J19_5" function="internal">
        <lane id=":J19_5_0" index="0" speed="13.89" length="21.10" shape="202.46,-64.05 202.25,-42.92"/>
        <lane id=":J19_5_1" index="1" speed="13.89" length="21.10" shape="199.26,-64.05 199.05,-42.99"/>
    </edge>
    <edge id=":J19_7" function="internal">
        <lane id=":J19_7_0" index="0" speed="9.26" length="5.25" shape="199.26,-64.05 198.52,-58.85"/>
    </edge>
    <edge id=":J19_17" function="internal">
        <lane id=":J19_17_0" index="0" speed="9.26" length="14.26" shape="198.52,-58.85 198.50,-58.73 196.24,-54.95 192.46,-52.70 187.18,-51.99"/>
    </edge>
    <edge id=":J19_8" function="internal">
        <lane id=":J19_8_0" index="0" speed="6.51" length="9.12" shape="187.24,-58.39 189.70,-58.72 191.45,-59.78 192.51,-61.55 192.86,-64.05"/>
    </edge>
    <edge id=":J19_9" function="internal">
        <lane id=":J19_9_0" index="0" speed="13.89" length="20.92" shape="187.24,-58.39 208.10,-58.55"/>
        <lane id=":J19_9_1" index="1" speed="13.89" length="20.92" shape="187.21,-55.19 208.18,-55.35"/>
    </edge>
    <edge id=":J19_11" function="internal">
        <lane id=":J19_11_0" index="0" speed="9.24" length="4.48" shape="187.21,-55.19 191.63,-54.51"/>
    </edge>
    <edge id=":J19_18" function="internal">
        <lane id=":J19_18_0" index="0" speed="9.24" length="14.96" shape="191.63,-54.51 192.48,-54.38 196.21,-52.08 198.40,-48.28 199.05,-42.99"/>
    </edge>
    <edge id=":J19_12" function="internal">
        <lane id=":J19_12_0" index="0" speed="6.48" length="9.03" shape="192.65,-43.12 192.35,-45.58 191.33,-47.35 189.60,-48.42 187.14,-48.79"/>
    </edge>
    <edge id=":J19_13" function="internal">
        <lane id=":J19_13_0" index="0" speed="13.89" length="20.96" shape="192.65,-43.12 192.86,-64.05"/>
        <lane id=":J19_13_1" index="1" speed="13.89" length="20.96" shape="195.85,-43.06 196.06,-64.05"/>
    </edge>
    <edge id=":J19_15" function="internal">
        <lane id=":J19_15_0" index="0" speed="9.49" length="4.69" shape="195.85,-43.06 196.60,-47.68"/>
    </edge>
    <edge id=":J19_19" function="internal">
        <lane id=":J19_19_0" index="0" speed="9.49" length="14.98" shape="196.60,-47.68 196.71,-48.32 199.05,-52.13 202.88,-54.47 208.18,-55.35"/>
    </edge>
    <edge id=":J2_0" function="internal">
        <lane id=":J2_0_0" index="0" speed="6.50" length="9.03" shape="262.10,122.92 261.73,120.47 260.67,118.72 258.91,117.69 256.46,117.35"/>
    </edge>
    <edge id=":J2_1" function="internal">
        <lane id=":J2_1_0" index="0" speed="13.89" length="20.81" shape="262.10,122.92 261.95,102.11"/>
        <lane id=":J2_1_1" index="1" speed="13.89" length="20.81" shape="265.30,122.90 265.15,102.08"/>
    </edge>
    <edge id=":J2_3" function="internal">
        <lane id=":J2_3_0" index="0" speed="13.89" length="20.84" shape="271.55,102.02 271.70,122.86"/>
        <lane id=":J2_3_1" index="1" speed="13.89" length="20.84" shape="268.35,102.05 268.50,122.88"/>
    </edge>
    <edge id=":J2_5" function="internal">
        <lane id=":J2_5_0" index="0" speed="9.25" length="5.08" shape="268.35,102.05 267.67,107.08"/>
    </edge>
    <edge id=":J2_8" function="internal">
        <lane id=":J2_8_0" index="0" speed="9.25" length="14.29" shape="267.67,107.08 267.64,107.31 265.42,111.09 261.69,113.36 256.44,114.15"/>
    </edge>
    <edge id=":J2_6" function="internal">
        <lane id=":J2_6_0" index="0" speed="6.50" length="9.03" shape="256.39,107.75 258.84,107.39 260.58,106.32 261.62,104.56 261.95,102.11"/>
    </edge>
    <edge id=":J2_7" function="internal">
        <lane id=":J2_7_0" index="0" speed="9.26" length="19.37" shape="256.42,110.95 261.68,111.67 265.44,113.89 267.72,117.63 268.50,122.88"/>
    </edge>
    <edge id=":J20_0" function="internal">
        <lane id=":J20_0_0" index="0" speed="6.53" length="9.08" shape="192.86,-98.05 192.51,-100.50 191.45,-102.25 189.68,-103.31 187.21,-103.67"/>
    </edge>
    <edge id=":J20_1" function="internal">
        <lane id=":J20_1_0" index="0" speed="13.89" length="28.36" shape="192.86,-98.05 192.86,-126.41"/>
        <lane id=":J20_1_1" index="1" speed="13.89" length="28.36" shape="196.06,-98.05 196.06,-126.41"/>
    </edge>
    <edge id=":J20_3" function="internal">
        <lane id=":J20_3_0" index="0" speed="13.89" length="4.57" shape="196.06,-98.05 196.77,-102.57"/>
    </edge>
    <edge id=":J20_16" function="internal">
        <lane id=":J20_16_0" index="0" speed="13.89" length="23.51" shape="196.77,-102.57 196.95,-103.67 199.60,-109.44 204.03,-115.34 210.22,-121.39"/>
    </edge>
    <edge id=":J20_4" function="internal">
        <lane id=":J20_4_0" index="0" speed="13.89" length="22.61" shape="214.41,-116.55 209.18,-111.52 205.45,-106.76 203.21,-102.27 202.46,-98.05"/>
    </edge>
    <edge id=":J20_5" function="internal">
        <lane id=":J20_5_0" index="0" speed="13.89" length="29.59" shape="214.41,-116.55 208.37,-111.77 201.72,-107.64 194.61,-104.74 187.21,-103.67"/>
        <lane id=":J20_5_1" index="1" speed="13.89" length="29.59" shape="212.32,-118.97 206.61,-114.32 200.68,-110.45 194.30,-107.82 187.22,-106.87"/>
    </edge>
    <edge id=":J20_7" function="internal">
        <lane id=":J20_7_0" index="0" speed="8.25" length="3.30" shape="212.32,-118.97 209.39,-117.45"/>
    </edge>
    <edge id=":J20_17" function="internal">
        <lane id=":J20_17_0" index="0" speed="8.25" length="20.10" shape="209.39,-117.45 206.61,-116.00 201.37,-116.53 197.54,-120.14 196.06,-126.41"/>
    </edge>
    <edge id=":J20_8" function="internal">
        <lane id=":J20_8_0" index="0" speed="5.51" length="9.54" shape="202.46,-126.41 202.81,-123.44 203.88,-122.01 205.65,-122.14 208.13,-123.81"/>
    </edge>
    <edge id=":J20_9" function="internal">
        <lane id=":J20_9_0" index="0" speed="13.89" length="28.36" shape="202.46,-126.41 202.46,-98.05"/>