<?xml version="1.0" encoding="UTF-8"?>
<routes xmlns:xsi="http://www.w3.org/2001/XMLSchema-instance" xsi:noNamespaceSchemaLocation="http://sumo.dlr.de/xsd/routes_file.xsd">
    <vehicle id="0" depart="0.00">
        <route edges="E20 E24 E29 E28 E30 E31 E32 E18 -E3 -E1"/>
    </vehicle>
    <vehicle id="1" depart="1.00">
        <route edges="-E3 E4 E10 E11 -E33 -E31 -E30 -E42 -E26"/>
    </vehicle>
    <vehicle id="2" depart="2.00">
        <route edges="E27 E28 -E42 -E36 E23"/>
    </vehicle>
    <vehicle id="3" depart="3.00">
        <route edges="E39 E40 -E38 E9 E11 E12 -E15 -E14"/>
    </vehicle>
    <vehicle id="4" depart="4.00">
        <route edges="-E41 E40 -E38 E9 -E10"/>
    </vehicle>
</routes>
