<?xml version="1.0" encoding="UTF-8"?>

<!-- generated on 2026-01-29 04:51:36 by Eclipse SUMO netedit Version 1.24.0
<neteditConfiguration xmlns:xsi="http://www.w3.org/2001/XMLSchema-instance" xsi:noNamespaceSchemaLocation="http://sumo.dlr.de/xsd/neteditConfiguration.xsd">

    <input>
        <sumo-net-file value="C:\Users\sahil\Desktop\idk\Random_Network\random.net.xml"/>
    </input>

    <output>
        <output-file value="C:\Users\sahil\Desktop\idk\Random_Network\random.net.xml"/>
    </output>

    <processing>
        <geometry.min-radius.fix.railways value="false"/>
        <geometry.avoid-overlap value="false"/>
        <geometry.max-grade.fix value="false"/>
        <offset.disable-normalization value="true"/>
        <lefthand value="0"/>
    </processing>

    <junctions>
        <no-turnarounds value="true"/>
        <junctions.corner-detail value="5"/>
        <junctions.limit-turn-speed value="5.50"/>
        <rectangular-lane-cut value="0"/>
    </junctions>

    <pedestrian>
        <walkingareas value="0"/>
    </pedestrian>

</neteditConfiguration>
-->

<net version="1.20" junctionCornerDetail="5" limitTurnSpeed="5.50" avoidOverlap="0" xmlns:xsi="http://www.w3.org/2001/XMLSchema-instance" xsi:noNamespaceSchemaLocation="http://sumo.dlr.de/xsd/net_file.xsd">

    <location netOffset="500.00,1000.00" convBoundary="0.00,0.00,1700.00,1800.00" origBoundary="-500.00,-1000.00,1200.00,800.00" projParameter="!"/>

    <edge id=":1_0" function="internal">
        <lane id=":1_0_0" index="0" speed="6.51" length="9.03" shape="498.40,1007.20 498.05,1004.75 497.00,1003.00 495.25,1001.95 492.80,1001.60"/>
    </edge>
    <edge id=":1_1" function="internal">
        <lane id=":1_1_0" index="0" speed="13.89" length="14.40" shape="498.40,1007.20 498.40,992.80"/>
    </edge>
    <edge id=":1_2" function="internal">
        <lane id=":1_2_0" index="0" speed="8.00" length="4.07" shape="498.40,1007.20 498.95,1003.35 499.04,1003.20"/>
    </edge>
    <edge id=":1_3" function="internal">
        <lane id=":1_3_0" index="0" speed="3.65" length="1.44" shape="498.40,1007.20 499.20,1006.00"/>
    </edge>
    <edge id=":1_16" function="internal">
        <lane id=":1_16_0" index="0" speed="8.00" length="10.13" shape="499.04,1003.20 500.60,1000.60 503.35,998.95 507.20,998.40"/>
    </edge>
    <edge id=":1_17" function="internal">
        <lane id=":1_17_0" index="0" speed="3.65" length="3.23" shape="499.20,1006.00 500.00,1005.60 500.80,1006.00 501.60,1007.20"/>
    </edge>
    <edge id=":1_4" function="internal">
        <lane id=":1_4_0" index="0" speed="6.51" length="9.03" shape="507.20,1001.60 504.75,1001.95 503.00,1003.00 501.95,1004.75 501.60,1007.20"/>
    </edge>
    <edge id=":1_5" function="internal">
        <lane id=":1_5_0" index="0" speed="13.89" length="14.40" shape="507.20,1001.60 492.80,1001.60"/>
    </edge>
    <edge id=":1_6" function="internal">
        <lane id=":1_6_0" index="0" speed="8.00" length="4.07" shape="507.20,1001.60 503.35,1001.05 503.20,1000.96"/>
    </edge>
    <edge id=":1_7" function="internal">
        <lane id=":1_7_0" index="0" speed="3.65" length="1.44" shape="507.20,1001.60 506.00,1000.80"/>
    </edge>
    <edge id=":1_18" function="internal">
        <lane id=":1_18_0" index="0" speed="8.00" length="10.13" shape="503.20,1000.96 500.60,999.40 498.95,996.65 498.40,992.80"/>
    </edge>
    <edge id=":1_19" function="internal">
        <lane id=":1_19_0" index="0" speed="3.65" length="3.23" shape="506.00,1000.80 505.60,1000.00 506.00,999.20 507.20,998.40"/>
    </edge>
    <edge id=":1_8" function="internal">
        <lane id=":1_8_0" index="0" speed="6.51" length="9.03" shape="501.60,992.80 501.95,995.25 503.00,997.00 504.75,998.05 507.20,998.40"/>
    </edge>
    <edge id=":1_9" function="internal">
        <lane id=":1_9_0" index="0" speed="13.89" length="14.40" shape="501.60,992.80 501.60,1007.20"/>
    </edge>
    <edge id=":1_10" function="internal">
        <lane id=":1_10_0" index="0" speed="8.00" length="4.07" shape="501.60,992.80 501.05,996.65 500.96,996.80"/>
    </edge>
    <edge id=":1_11" function="internal">
        <lane id=":1_11_0" index="0" speed="3.65" length="1.44" shape="501.60,992.80 500.80,994.00"/>
    </edge>
    <edge id=":1_20" function="internal">
        <lane id=":1_20_0" index="0" speed="8.00" length="10.13" shape="500.96,996.80 499.40,999.40 496.65,1001.05 492.80,1001.60"/>
    </edge>
    <edge id=":1_21" function="internal">
        <lane id=":1_21_0" index="0" speed="3.65" length="3.23" shape="500.80,994.00 500.00,994.40 499.20,994.00 498.40,992.80"/>
    </edge>
    <edge id=":1_12" function="internal">
        <lane id=":1_12_0" index="0" speed="6.51" length="9.03" shape="492.80,998.40 495.25,998.05 497.00,997.00 498.05,995.25 498.40,992.80"/>
    </edge>
    <edge id=":1_13" function="internal">
        <lane id=":1_13_0" index="0" speed="13.89" length="14.40" shape="492.80,998.40 507.20,998.40"/>
    </edge>
    <edge id=":1_14" function="internal">
        <lane id=":1_14_0" index="0" speed="8.00" length="4.07" shape="492.80,998.40 496.65,998.95 496.80,999.04"/>
    </edge>
    <edge id=":1_15" function="internal">
        <lane id=":1_15_0" index="0" speed="3.65" length="1.44" shape="492.80,998.40 494.00,999.20"/>
    </edge>
    <edge id=":1_22" function="internal">
        <lane id=":1_22_0" index="0" speed="8.00" length="10.13" shape="496.80,999.04 499.40,1000.60 501.05,1003.35 501.60,1007.20"/>
    </edge>
    <edge id=":1_23" function="internal">
        <lane id=":1_23_0" index="0" speed="3.65" length="3.23" shape="494.00,999.20 494.40,1000.00 494.00,1000.80 492.80,1001.60"/>
    </edge>
    <edge id=":1037_0" function="internal">
        <lane id=":1037_0_0" index="0" speed="13.89" length="14.40" shape="598.40,307.20 598.40,292.80"/>
    </edge>
    <edge id=":1037_1" function="internal">
        <lane id=":1037_1_0" index="0" speed="8.00" length="4.07" shape="598.40,307.20 598.95,303.35 599.04,303.20"/>
    </edge>
    <edge id=":1037_2" function="internal">
        <lane id=":1037_2_0" index="0" speed="3.65" length="1.44" shape="598.40,307.20 599.20,306.00"/>
    </edge>
    <edge id=":1037_9" function="internal">
        <lane id=":1037_9_0" index="0" speed="8.00" length="10.13" shape="599.04,303.20 600.60,300.60 603.35,298.95 607.20,298.40"/>
    </edge>
    <edge id=":1037_10" function="internal">
        <lane id=":1037_10_0" index="0" speed="3.65" length="3.23" shape="599.20,306.00 600.00,305.60 600.80,306.00 601.60,307.20"/>
    </edge>
    <edge id=":1037_3" function="internal">
        <lane id=":1037_3_0" index="0" speed="6.51" length="9.03" shape="607.20,301.60 604.75,301.95 603.00,303.00 601.95,304.75 601.60,307.20"/>
    </edge>
    <edge id=":1037_4" function="internal">
        <lane id=":1037_4_0" index="0" speed="8.00" length="14.19" shape="607.20,301.60 603.35,301.05 600.60,299.40 598.95,296.65 598.40,292.80"/>
    </edge>
    <edge id=":1037_5" function="internal">
        <lane id=":1037_5_0" index="0" speed="3.65" length="1.44" shape="607.20,301.60 606.00,300.80"/>
    </edge>
    <edge id=":1037_11" function="internal">
        <lane id=":1037_11_0" index="0" speed="3.65" length="3.23" shape="606.00,300.80 605.60,300.00 606.00,299.20 607.20,298.40"/>
    </edge>
    <edge id=":1037_6" function="internal">
        <lane id=":1037_6_0" index="0" speed="6.51" length="9.03" shape="601.60,292.80 601.95,295.25 603.00,297.00 604.75,298.05 607.20,298.40"/>
    </edge>
    <edge id=":1037_7" function="internal">
        <lane id=":1037_7_0" index="0" speed="13.89" length="14.40" shape="601.60,292.80 601.60,307.20"/>
    </edge>
    <edge id=":1037_8" function="internal">
        <lane id=":1037_8_0" index="0" speed="3.65" length="1.44" shape="601.60,292.80 600.80,294.00"/>
    </edge>
    <edge id=":1037_12" function="internal">
        <lane id=":1037_12_0" index="0" speed="3.65" length="3.23" shape="600.80,294.00 600.00,294.40 599.20,294.00 598.40,292.80"/>
    </edge>
    <edge id=":1042_0" function="internal">
        <lane id=":1042_0_0" index="0" speed="13.89" length="14.40" shape="198.40,507.20 198.40,492.80"/>
    </edge>
    <edge id=":1042_1" function="internal">
        <lane id=":1042_1_0" index="0" speed="8.00" length="4.07" shape="198.40,507.20 198.95,503.35 199.04,503.20"/>
    </edge>
    <edge id=":1042_2" function="internal">
        <lane id=":1042_2_0" index="0" speed="3.65" length="1.44" shape="198.40,507.20 199.20,506.00"/>
    </edge>
    <edge id=":1042_9" function="internal">
        <lane id=":1042_9_0" index="0" speed="8.00" length="10.13" shape="199.04,503.20 200.60,500.60 203.35,498.95 207.20,498.40"/>
    </edge>
    <edge id=":1042_10" function="internal">
        <lane id=":1042_10_0" index="0" speed="3.65" length="3.23" shape="199.20,506.00 200.00,505.60 200.80,506.00 201.60,507.20"/>
    </edge>
    <edge id=":1042_3" function="internal">
        <lane id=":1042_3_0" index="0" speed="6.51" length="9.03" shape="207.20,501.60 204.75,501.95 203.00,503.00 201.95,504.75 201.60,507.20"/>
    </edge>
    <edge id=":1042_4" function="internal">
        <lane id=":1042_4_0" index="0" speed="8.00" length="14.19" shape="207.20,501.60 203.35,501.05 200.60,499.40 198.95,496.65 198.40,492.80"/>
    </edge>
    <edge id=":1042_5" function="internal">
        <lane id=":1042_5_0" index="0" speed="3.65" length="1.44" shape="207.20,501.60 206.00,500.80"/>
    </edge>
    <edge id=":1042_11" function="internal">
        <lane id=":1042_11_0" index="0" speed="3.65" length="3.23" shape="206.00,500.80 205.60,500.00 206.00,499.20 207.20,498.40"/>
    </edge>
    <edge id=":1042_6" function="internal">
        <lane id=":1042_6_0" index="0" speed="6.51" length="9.03" shape="201.60,492.80 201.95,495.25 203.00,497.00 204.75,498.05 207.20,498.40"/>
    </edge>
    <edge id=":1042_7" function="internal">
        <lane id=":1042_7_0" index="0" speed="13.89" length="14.40" shape="201.60,492.80 201.60,507.20"/>
    </edge>
    <edge id=":1042_8" function="internal">
        <lane id=":1042_8_0" index="0" speed="3.65" length="1.44" shape="201.60,492.80 200.80,494.00"/>
    </edge>
    <edge id=":1042_12" function="internal">
        <lane id=":1042_12_0" index="0" speed="3.65" length="3.23" shape="200.80,494.00 200.00,494.40 199.20,494.00 198.40,492.80"/>
    </edge>
    <edge id=":1060_0" function="internal">
        <lane id=":1060_0_0" index="0" speed="13.89" length="12.82" shape="706.83,305.21 703.75,303.70 700.95,302.56 698.05,301.85 694.67,301.60"/>
    </edge>
    <edge id=":1060_1" function="internal">
        <lane id=":1060_1_0" index="0" speed="7.55" length="4.15" shape="706.83,305.21 703.42,302.84"/>
    </edge>
    <edge id=":1060_2" function="internal">
        <lane id=":1060_2_0" index="0" speed="3.65" length="1.44" shape="706.83,305.21 706.12,303.95"/>
    </edge>
    <edge id=":1060_9" function="internal">
        <lane id=":1060_9_0" index="0" speed="7.55" length="11.44" shape="703.42,302.84 703.13,302.65 701.57,299.75 702.13,296.50 704.84,292.90"/>
    </edge>
    <edge id=":1060_10" function="internal">
        <lane id=":1060_10_0" index="0" speed="3.65" length="3.23" shape="706.12,303.95 706.12,303.06 706.83,302.52 708.26,302.34"/>
    </edge>
    <edge id=":1060_3" function="internal">
        <lane id=":1060_3_0" index="0" speed="5.92" length="9.10" shape="707.10,295.16 705.52,297.26 705.19,299.16 706.11,300.85 708.26,302.34"/>
    </edge>
    <edge id=":1060_4" function="internal">
        <lane id=":1060_4_0" index="0" speed="12.45" length="14.33" shape="707.10,295.16 703.91,297.98 700.77,299.99 697.70,301.20 694.67,301.60"/>
    </edge>
    <edge id=":1060_5" function="internal">
        <lane id=":1060_5_0" index="0" speed="3.65" length="1.44" shape="707.10,295.16 705.68,295.45"/>
    </edge>
    <edge id=":1060_11" function="internal">
        <lane id=":1060_11_0" index="0" speed="3.65" length="3.23" shape="705.68,295.45 704.84,295.16 704.55,294.32 704.84,292.90"/>
    </edge>
    <edge id=":1060_6" function="internal">
        <lane id=":1060_6_0" index="0" speed="11.34" length="11.83" shape="694.67,298.40 697.06,298.06 699.55,297.03 702.14,295.31 704.84,292.90"/>
    </edge>
    <edge id=":1060_7" function="internal">
        <lane id=":1060_7_0" index="0" speed="13.89" length="14.28" shape="694.67,298.40 698.28,298.70 701.67,299.53 704.96,300.78 708.26,302.34"/>
    </edge>
    <edge id=":1060_8" function="internal">
        <lane id=":1060_8_0" index="0" speed="3.65" length="1.44" shape="694.67,298.40 695.87,299.20"/>
    </edge>
    <edge id=":1060_12" function="internal">
        <lane id=":1060_12_0" index="0" speed="3.65" length="3.23" shape="695.87,299.20 696.27,300.00 695.87,300.80 694.67,301.60"/>
    </edge>
    <edge id=":1108_0" function="internal">
        <lane id=":1108_0_0" index="0" speed="13.89" length="14.40" shape="998.40,107.20 998.40,92.80"/>
    </edge>
    <edge id=":1108_1" function="internal">
        <lane id=":1108_1_0" index="0" speed="8.00" length="4.07" shape="998.40,107.20 998.95,103.35 999.04,103.20"/>
    </edge>
    <edge id=":1108_2" function="internal">
        <lane id=":1108_2_0" index="0" speed="3.65" length="1.44" shape="998.40,107.20 999.20,106.00"/>
    </edge>
    <edge id=":1108_9" function="internal">
        <lane id=":1108_9_0" index="0" speed="8.00" length="10.13" shape="999.04,103.20 1000.60,100.60 1003.35,98.95 1007.20,98.40"/>
    </edge>
    <edge id=":1108_10" function="internal">
        <lane id=":1108_10_0" index="0" speed="3.65" length="3.23" shape="999.20,106.00 1000.00,105.60 1000.80,106.00 1001.60,107.20"/>
    </edge>
    <edge id=":1108_3" function="internal">
        <lane id=":1108_3_0" index="0" speed="6.51" length="9.03" shape="1007.20,101.60 1004.75,101.95 1003.00,103.00 1001.95,104.75 1001.60,107.20"/>
    </edge>
    <edge id=":1108_4" function="internal">
        <lane id=":1108_4_0" index="0" speed="8.00" length="14.19" shape="1007.20,101.60 1003.35,101.05 1000.60,99.40 998.95,96.65 998.40,92.80"/>
    </edge>
    <edge id=":1108_5" function="internal">
        <lane id=":1108_5_0" index="0" speed="3.65" length="1.44" shape="1007.20,101.60 1006.00,100.80"/>
    </edge>
    <edge id=":1108_11" function="internal">
        <lane id=":1108_11_0" index="0" speed="3.65" length="3.23" shape="1006.00,100.80 1005.60,100.00 1006.00,99.20 1007.20,98.40"/>
    </edge>
    <edge id=":1108_6" function="internal">
        <lane id=":1108_6_0" index="0" speed="6.51" length="9.03" shape="1001.60,92.80 1001.95,95.25 1003.00,97.00 1004.75,98.05 1007.20,98.40"/>
    </edge>
    <edge id=":1108_7" function="internal">
        <lane id=":1108_7_0" index="0" speed="13.89" length="14.40" shape="1001.60,92.80 1001.60,107.20"/>
    </edge>
    <edge id=":1108_8" function="internal">
        <lane id=":1108_8_0" index="0" speed="3.65" length="1.44" shape="1001.60,92.80 1000.80,94.00"/>
    </edge>
    <edge id=":1108_12" function="internal">
        <lane id=":1108_12_0" index="0" speed="3.65" length="3.23" shape="1000.80,94.00 1000.00,94.40 999.20,94.00 998.40,92.80"/>
    </edge>
    <edge id=":1120_0" function="internal">
        <lane id=":1120_0_0" index="0" speed="6.51" length="9.03" shape="598.40,207.20 598.05,204.75 597.00,203.00 595.25,201.95 592.80,201.60"/>
    </edge>
    <edge id=":1120_1" function="internal">
        <lane id=":1120_1_0" index="0" speed="13.89" length="14.40" shape="598.40,207.20 598.40,192.80"/>
    </edge>
    <edge id=":1120_2" function="internal">
        <lane id=":1120_2_0" index="0" speed="8.00" length="4.07" shape="598.40,207.20 598.95,203.35 599.04,203.20"/>
    </edge>
    <edge id=":1120_3" function="internal">
        <lane id=":1120_3_0" index="0" speed="3.65" length="1.44" shape="598.40,207.20 599.20,206.00"/>
    </edge>
    <edge id=":1120_16" function="internal">
        <lane id=":1120_16_0" index="0" speed="8.00" length="10.13" shape="599.04,203.20 600.60,200.60 603.35,198.95 607.20,198.40"/>
    </edge>
    <edge id=":1120_17" function="internal">
        <lane id=":1120_17_0" index="0" speed="3.65" length="3.23" shape="599.20,206.00 600.00,205.60 600.80,206.00 601.60,207.20"/>
    </edge>
    <edge id=":1120_4" function="internal">
        <lane id=":1120_4_0" index="0" speed="6.51" length="9.03" shape="607.20,201.60 604.75,201.95 603.00,203.00 601.95,204.75 601.60,207.20"/>
    </edge>
    <edge id=":1120_5" function="internal">
        <lane id=":1120_5_0" index="0" speed="13.89" length="14.40" shape="607.20,201.60 592.80,201.60"/>
    </edge>
    <edge id=":1120_6" function="internal">
        <lane id=":1120_6_0" index="0" speed="8.00" length="4.07" shape="607.20,201.60 603.35,201.05 603.20,200.96"/>
    </edge>
    <edge id=":1120_7" function="internal">
        <lane id=":1120_7_0" index="0" speed="3.65" length="1.44" shape="607.20,201.60 606.00,200.80"/>
    </edge>
    <edge id=":1120_18" function="internal">
        <lane id=":1120_18_0" index="0" speed="8.00" length="10.13" shape="603.20,200.96 600.60,199.40 598.95,196.65 598.40,192.80"/>
    </edge>
    <edge id=":1120_19" function="internal">
        <lane id=":1120_19_0" index="0" speed="3.65" length="3.23" shape="606.00,200.80 605.60,200.00 606.00,199.20 607.20,198.40"/>
    </edge>
    <edge id=":1120_8" function="internal">
        <lane id=":1120_8_0" index="0" speed="6.51" length="9.03" shape="601.60,192.80 601.95,195.25 603.00,197.00 604.75,198.05 607.20,198.40"/>
    </edge>
    <edge id=":1120_9" function="internal">
        <lane id=":1120_9_0" index="0" speed="13.89" length="14.40" shape="601.60,192.80 601.60,207.20"/>
    </edge>
    <edge id=":1120_10" function="internal">
        <lane id=":1120_10_0" index="0" speed="8.00" length="4.07" shape="601.60,192.80 601.05,196.65 600.96,196.80"/>
    </edge>
    <edge id=":1120_11" function="internal">
        <lane id=":1120_11_0" index="0" speed="3.65" length="1.44" shape="601.60,192.80 600.80,194.00"/>
    </edge>
    <edge id=":1120_20" function="internal">
        <lane id=":1120_20_0" index="0" speed="8.00" length="10.13" shape="600.96,196.80 599.40,199.40 596.65,201.05 592.80,201.60"/>
    </edge>
    <edge id=":1120_21" function="internal">
        <lane id=":1120_21_0" index="0" speed="3.65" length="3.23" shape="600.80,194.00 600.00,194.40 599.20,194.00 598.40,192.80"/>
    </edge>
    <edge id=":1120_12" function="internal">
        <lane id=":1120_12_0" index="0" speed="6.51" length="9.03" shape="592.80,198.40 595.25,198.05 597.00,197.00 598.05,195.25 598.40,192.80"/>
    </edge>
    <edge id=":1120_13" function="internal">
        <lane id=":1120_13_0" index="0" speed="13.89" length="14.40" shape="592.80,198.40 607.20,198.40"/>
    </edge>
    <edge id=":1120_14" function="internal">
        <lane id=":1120_14_0" index="0" speed="8.00" length="4.07" shape="592.80,198.40 596.65,198.95 596.80,199.04"/>
    </edge>
    <edge id=":1120_15" function="internal">
        <lane id=":1120_15_0" index="0" speed="3.65" length="1.44" shape="592.80,198.40 594.00,199.20"/>
    </edge>
    <edge id=":1120_22" function="internal">
        <lane id=":1120_22_0" index="0" speed="8.00" length="10.13" shape="596.80,199.04 599.40,200.60 601.05,203.35 601.60,207.20"/>
    </edge>
    <edge id=":1120_23" function="internal">
        <lane id=":1120_23_0" index="0" speed="3.65" length="3.23" shape="594.00,199.20 594.40,200.00 594.00,200.80 592.80,201.60"/>
    </edge>
    <edge id=":1129_0" function="internal">
        <lane id=":1129_0_0" index="0" speed="6.51" length="9.03" shape="998.40,1507.20 998.05,1504.75 997.00,1503.00 995.25,1501.95 992.80,1501.60"/>
    </edge>
    <edge id=":1129_1" function="internal">
        <lane id=":1129_1_0" index="0" speed="13.89" length="14.40" shape="998.40,1507.20 998.40,1492.80"/>
    </edge>
    <edge id=":1129_2" function="internal">
        <lane id=":1129_2_0" index="0" speed="8.00" length="4.07" shape="998.40,1507.20 998.95,1503.35 999.04,1503.20"/>
    </edge>
    <edge id=":1129_3" function="internal">
        <lane id=":1129_3_0" index="0" speed="3.65" length="1.44" shape="998.40,1507.20 999.20,1506.00"/>
    </edge>
    <edge id=":1129_16" function="internal">
        <lane id=":1129_16_0" index="0" speed="8.00" length="10.13" shape="999.04,1503.20 1000.60,1500.60 1003.35,1498.95 1007.20,1498.40"/>
    </edge>
    <edge id=":1129_17" function="internal">
        <lane id=":1129_17_0" index="0" speed="3.65" length="3.23" shape="999.20,1506.00 1000.00,1505.60 1000.80,1506.00 1001.60,1507.20"/>
    </edge>
    <edge id=":1129_4" function="internal">
        <lane id=":1129_4_0" index="0" speed="6.51" length="9.03" shape="1007.20,1501.60 1004.75,1501.95 1003.00,1503.00 1001.95,1504.75 1001.60,1507.20"/>
    </edge>
    <edge id=":1129_5" function="internal">
        <lane id=":1129_5_0" index="0" speed="13.89" length="14.40" shape="1007.20,1501.60 992.80,1501.60"/>
    </edge>
    <edge id=":1129_6" function="internal">
        <lane id=":1129_6_0" index="0" speed="8.00" length="4.07" shape="1007.20,1501.60 1003.35,1501.05 1003.20,1500.96"/>
    </edge>
    <edge id=":1129_7" function="internal">
        <lane id=":1129_7_0" index="0" speed="3.65" length="1.44" shape="1007.20,1501.60 1006.00,1500.80"/>
    </edge>
    <edge id=":1129_18" function="internal">
        <lane id=":1129_18_0" index="0" speed="8.00" length="10.13" shape="1003.20,1500.96 1000.60,1499.40 998.95,1496.65 998.40,1492.80"/>
    </edge>
    <edge id=":1129_19" function="internal">
        <lane id=":1129_19_0" index="0" speed="3.65" length="3.23" shape="1006.00,1500.80 1005.60,1500.00 1006.00,1499.20 1007.20,1498.40"/>
    </edge>
    <edge id=":1129_8" function="internal">
        <lane id=":1129_8_0" index="0" speed="6.51" length="9.03" shape="1001.60,1492.80 1001.95,1495.25 1003.00,1497.00 1004.75,1498.05 1007.20,1498.40"/>
    </edge>
    <edge id=":1129_9" function="internal">
        <lane id=":1129_9_0" index="0" speed="13.89" length="14.40" shape="1001.60,1492.80 1001.60,1507.20"/>
    </edge>
    <edge id=":1129_10" function="internal">
        <lane id=":1129_10_0" index="0" speed="8.00" length="4.07" shape="1001.60,1492.80 1001.05,1496.65 1000.96,1496.80"/>
    </edge>
    <edge id=":1129_11" function="internal">
        <lane id=":1129_11_0" index="0" speed="3.65" length="1.44" shape="1001.60,1492.80 1000.80,1494.00"/>
    </edge>
    <edge id=":1129_20" function="internal">
        <lane id=":1129_20_0" index="0" speed="8.00" length="10.13" shape="1000.96,1496.80 999.40,1499.40 996.65,1501.05 992.80,1501.60"/>
    </edge>
    <edge id=":1129_21" function="internal">
        <lane id=":1129_21_0" index="0" speed="3.65" length="3.23" shape="1000.80,1494.00 1000.00,1494.40 999.20,1494.00 998.40,1492.80"/>
    </edge>
    <edge id=":1129_12" function="internal">
        <lane id=":1129_12_0" index="0" speed="6.51" length="9.03" shape="992.80,1498.40 995.25,1498.05 997.00,1497.00 998.05,1495.25 998.40,1492.80"/>
    </edge>
    <edge id=":1129_13" function="internal">
        <lane id=":1129_13_0" index="0" speed="13.89" length="14.40" shape="992.80,1498.40 1007.20,1498.40"/>
    </edge>
    <edge id=":1129_14" function="internal">
        <lane id=":1129_14_0" index="0" speed="8.00" length="4.07" shape="992.80,1498.40 996.65,1498.95 996.80,1499.04"/>
    </edge>
    <edge id=":1129_15" function="internal">
        <lane id=":1129_15_0" index="0" speed="3.65" length="1.44" shape="992.80,1498.40 994.00,1499.20"/>
    </edge>
    <edge id=":1129_22" function="internal">
        <lane id=":1129_22_0" index="0" speed="8.00" length="10.13" shape="996.80,1499.04 999.40,1500.60 1001.05,1503.35 1001.60,1507.20"/>
    </edge>
    <edge id=":1129_23" function="internal">
        <lane id=":1129_23_0" index="0" speed="3.65" length="3.23" shape="994.00,1499.20 994.40,1500.00 994.00,1500.80 992.80,1501.60"/>
    </edge>
    <edge id=":1146_0" function="internal">
        <lane id=":1146_0_0" index="0" speed="13.89" length="17.05" shape="511.73,201.60 494.67,201.60"/>
    </edge>
    <edge id=":1146_1" function="internal">
        <lane id=":1146_1_0" index="0" speed="7.42" length="6.00" shape="511.73,201.60 505.76,200.93"/>
    </edge>
    <edge id=":1146_2" function="internal">
        <lane id=":1146_2_0" index="0" speed="3.65" length="1.44" shape="511.73,201.60 510.53,200.80"/>
    </edge>
    <edge id=":1146_9" function="internal">
        <lane id=":1146_9_0" index="0" speed="7.42" length="13.30" shape="505.76,200.93 505.59,200.91 502.79,198.84 503.31,195.40 507.16,190.58"/>
    </edge>
    <edge id=":1146_10" function="internal">
        <lane id=":1146_10_0" index="0" speed="3.65" length="3.23" shape="510.53,200.80 510.13,200.00 510.53,199.20 511.73,198.40"/>
    </edge>
    <edge id=":1146_3" function="internal">
        <lane id=":1146_3_0" index="0" speed="5.47" length="9.74" shape="509.42,192.84 507.48,195.27 507.22,197.01 508.63,198.05 511.73,198.40"/>
    </edge>
    <edge id=":1146_4" function="internal">
        <lane id=":1146_4_0" index="0" speed="13.71" length="17.48" shape="509.42,192.84 506.33,195.70 502.60,198.55 498.59,200.73 494.67,201.60"/>
    </edge>
    <edge id=":1146_5" function="internal">
        <lane id=":1146_5_0" index="0" speed="3.65" length="1.44" shape="509.42,192.84 508.01,193.12"/>
    </edge>
    <edge id=":1146_11" function="internal">
        <lane id=":1146_11_0" index="0" speed="3.65" length="3.23" shape="508.01,193.12 507.16,192.84 506.88,191.99 507.16,190.58"/>
    </edge>
    <edge id=":1146_6" function="internal">
        <lane id=":1146_6_0" index="0" speed="12.73" length="15.02" shape="494.67,198.40 497.20,197.91 500.13,196.44 503.45,194.00 507.16,190.58"/>
    </edge>
    <edge id=":1146_7" function="internal">
        <lane id=":1146_7_0" index="0" speed="13.89" length="17.05" shape="494.67,198.40 511.73,198.40"/>
    </edge>
    <edge id=":1146_8" function="internal">
        <lane id=":1146_8_0" index="0" speed="3.65" length="1.44" shape="494.67,198.40 495.87,199.20"/>
    </edge>
    <edge id=":1146_12" function="internal">
        <lane id=":1146_12_0" index="0" speed="3.65" length="3.23" shape="495.87,199.20 496.27,200.00 495.87,200.80 494.67,201.60"/>
    </edge>
    <edge id=":1148_0" function="internal">
        <lane id=":1148_0_0" index="0" speed="4.12" length="4.78" shape="598.40,107.73 598.23,106.21 597.72,105.51 596.86,105.64 595.67,106.59"/>
    </edge>
    <edge id=":1148_1" function="internal">
        <lane id=":1148_1_0" index="0" speed="6.49" length="14.35" shape="593.41,104.33 596.99,101.47 599.55,101.08 601.09,103.17 601.60,107.73"/>
    </edge>
    <edge id=":1154_0" function="internal">
        <lane id=":1154_0_0" index="0" speed="7.65" length="12.89" shape="298.40,1011.73 298.05,1007.30 297.00,1004.13 295.25,1002.23 292.80,1001.60"/>
    </edge>
    <edge id=":1154_1" function="internal">
        <lane id=":1154_1_0" index="0" speed="13.89" length="18.93" shape="298.40,1011.73 298.40,992.80"/>
    </edge>
    <edge id=":1154_2" function="internal">
        <lane id=":1154_2_0" index="0" speed="7.42" length="6.00" shape="298.40,1011.73 299.07,1005.76"/>
    </edge>
    <edge id=":1154_3" function="internal">
        <lane id=":1154_3_0" index="0" speed="3.65" length="1.44" shape="298.40,1011.73 299.20,1010.53"/>
    </edge>
    <edge id=":1154_16" function="internal">
        <lane id=":1154_16_0" index="0" speed="7.42" length="13.30" shape="299.07,1005.76 299.09,1005.59 301.16,1002.79 304.60,1003.31 309.42,1007.16"/>
    </edge>
    <edge id=":1154_17" function="internal">
        <lane id=":1154_17_0" index="0" speed="3.65" length="3.23" shape="299.20,1010.53 300.00,1010.13 300.80,1010.53 301.60,1011.73"/>
    </edge>
    <edge id=":1154_4" function="internal">
        <lane id=":1154_4_0" index="0" speed="5.47" length="9.74" shape="307.16,1009.42 304.73,1007.48 302.99,1007.22 301.95,1008.63 301.60,1011.73"/>
    </edge>
    <edge id=":1154_5" function="internal">
        <lane id=":1154_5_0" index="0" speed="13.42" length="16.74" shape="307.16,1009.42 303.33,1006.00 299.66,1003.56 296.15,1002.09 292.80,1001.60"/>
    </edge>
    <edge id=":1154_6" function="internal">
        <lane id=":1154_6_0" index="0" speed="13.89" length="5.71" shape="307.16,1009.42 303.94,1005.53 303.60,1004.96"/>
    </edge>
    <edge id=":1154_7" function="internal">
        <lane id=":1154_7_0" index="0" speed="3.65" length="1.44" shape="307.16,1009.42 306.88,1008.01"/>
    </edge>
    <edge id=":1154_18" function="internal">
        <lane id=":1154_18_0" index="0" speed="13.89" length="13.35" shape="303.60,1004.96 301.14,1000.94 299.15,996.44 298.40,992.80"/>
    </edge>
    <edge id=":1154_19" function="internal">
        <lane id=":1154_19_0" index="0" speed="3.65" length="3.23" shape="306.88,1008.01 307.16,1007.16 308.01,1006.88 309.42,1007.16"/>
    </edge>
    <edge id=":1154_8" function="internal">
        <lane id=":1154_8_0" index="0" speed="13.42" length="16.74" shape="301.60,992.80 302.09,996.15 303.56,999.66 306.00,1003.33 309.42,1007.16"/>
    </edge>
    <edge id=":1154_9" function="internal">
        <lane id=":1154_9_0" index="0" speed="13.89" length="18.93" shape="301.60,992.80 301.60,1011.73"/>
    </edge>
    <edge id=":1154_10" function="internal">
        <lane id=":1154_10_0" index="0" speed="8.00" length="4.07" shape="301.60,992.80 301.05,996.65 300.96,996.80"/>
    </edge>
    <edge id=":1154_11" function="internal">
        <lane id=":1154_11_0" index="0" speed="3.65" length="1.44" shape="301.60,992.80 300.80,994.00"/>
    </edge>
    <edge id=":1154_20" function="internal">
        <lane id=":1154_20_0" index="0" speed="8.00" length="10.13" shape="300.96,996.80 299.40,999.40 296.65,1001.05 292.80,1001.60"/>
    </edge>
    <edge id=":1154_21" function="internal">
        <lane id=":1154_21_0" index="0" speed="3.65" length="3.23" shape="300.80,994.00 300.00,994.40 299.20,994.00 298.40,992.80"/>